REMARK  Name = D:\DATA SETS\BI\DOCKING\6Y3C\FLC.pdb
REMARK  9 active torsions:
REMARK  status: ('A' for Active; 'I' for Inactive)
REMARK    1  A    between atoms: _1  and  _2
REMARK    2  A    between atoms: _1  and  _5
REMARK    3  A    between atoms: _2  and  _4
REMARK    4  A    between atoms: _5  and  _6
REMARK    5  A    between atoms: _5  and  _9
REMARK    6  A    between atoms: _5  and  _13
REMARK    7  A    between atoms: _6  and  _8
REMARK    8  A    between atoms: _9  and  _10
REMARK    9  A    between atoms: _10  and  _12
REMARK                            x       y       z     vdW  Elec       q    Type
REMARK                         _______ _______ _______ _____ _____    ______ ____
ROOT
ATOM      2  C   UNL     1     -13.936 -33.674  10.735  0.00  0.00    +0.182 C 
ENDROOT
BRANCH   2   3
ATOM      3  O   UNL     1     -14.341 -34.996  10.505  0.00  0.00    -0.376 OA
ATOM      4  H   UNL     1     -14.214 -35.215   9.569  0.00  0.00    +0.211 HD
ENDBRANCH   2   3
BRANCH   2  10
ATOM     10  C   UNL     1     -14.771 -32.725   9.876  0.00  0.00    +0.338 C 
ATOM     13  O   UNL     1     -15.116 -33.062   8.713  0.00  0.00    -0.248 OA
BRANCH  10  11
ATOM     11  O   UNL     1     -15.112 -31.602  10.332  0.00  0.00    -0.479 OA
ATOM     12  H   UNL     1     -14.856 -31.350  11.197  0.00  0.00    +0.295 HD
ENDBRANCH  10  11
ENDBRANCH   2  10
BRANCH   2   1
ATOM      1  C   UNL     1     -12.458 -33.518  10.380  0.00  0.00    +0.167 C 
BRANCH   1  14
ATOM     14  C   UNL     1     -12.037 -34.387   9.197  0.00  0.00    +0.308 C 
ATOM     17  O   UNL     1     -12.663 -34.324   8.106  0.00  0.00    -0.251 OA
BRANCH  14  15
ATOM     15  O   UNL     1     -11.057 -35.169   9.313  0.00  0.00    -0.481 OA
ATOM     16  H   UNL     1     -10.590 -35.218  10.124  0.00  0.00    +0.295 HD
ENDBRANCH  14  15
ENDBRANCH   1  14
ENDBRANCH   2   1
BRANCH   2   5
ATOM      5  C   UNL     1     -14.131 -33.317  12.208  0.00  0.00    +0.167 C 
BRANCH   5   6
ATOM      6  C   UNL     1     -15.505 -33.713  12.747  0.00  0.00    +0.308 C 
ATOM      9  O   UNL     1     -15.999 -34.835  12.461  0.00  0.00    -0.251 OA
BRANCH   6   7
ATOM      7  O   UNL     1     -16.144 -32.913  13.481  0.00  0.00    -0.481 OA
ATOM      8  H   UNL     1     -15.777 -32.078  13.694  0.00  0.00    +0.295 HD
ENDBRANCH   6   7
ENDBRANCH   5   6
ENDBRANCH   2   5
TORSDOF 9
