MODEL 1
REMARK VINA RESULT:      -5.2      0.000      0.000
REMARK  Name = D:\DATA SETS\BI\DOCKING\6Y3C\FLC.pdb
REMARK  9 active torsions:
REMARK  status: ('A' for Active; 'I' for Inactive)
REMARK    1  A    between atoms: _1  and  _2
REMARK    2  A    between atoms: _1  and  _5
REMARK    3  A    between atoms: _2  and  _4
REMARK    4  A    between atoms: _5  and  _6
REMARK    5  A    between atoms: _5  and  _9
REMARK    6  A    between atoms: _5  and  _13
REMARK    7  A    between atoms: _6  and  _8
REMARK    8  A    between atoms: _9  and  _10
REMARK    9  A    between atoms: _10  and  _12
REMARK                            x       y       z     vdW  Elec       q    Type
REMARK                         _______ _______ _______ _____ _____    ______ ____
ROOT
ATOM      2  C   UNL     1     -40.654 -56.415   6.046  0.00  0.00    +0.182 C 
ENDROOT
BRANCH   2   3
ATOM      3  O   UNL     1     -40.133 -57.061   7.175  0.00  0.00    -0.376 OA
ATOM      4  H   UNL     1     -40.847 -57.518   7.645  0.00  0.00    +0.211 HD
ENDBRANCH   2   3
BRANCH   2  10
ATOM     10  C   UNL     1     -41.055 -54.986   6.411  0.00  0.00    +0.338 C 
ATOM     13  O   UNL     1     -40.887 -54.050   5.586  0.00  0.00    -0.248 OA
BRANCH  10  11
ATOM     11  O   UNL     1     -41.553 -54.744   7.543  0.00  0.00    -0.479 OA
ATOM     12  H   UNL     1     -42.159 -54.038   7.647  0.00  0.00    +0.295 HD
ENDBRANCH  10  11
ENDBRANCH   2  10
BRANCH   2   1
ATOM      1  C   UNL     1     -41.877 -57.175   5.535  0.00  0.00    +0.167 C 
BRANCH   1  14
ATOM     14  C   UNL     1     -42.527 -58.044   6.610  0.00  0.00    +0.308 C 
ATOM     17  O   UNL     1     -43.147 -57.513   7.569  0.00  0.00    -0.251 OA
BRANCH  14  15
ATOM     15  O   UNL     1     -42.443 -59.298   6.534  0.00  0.00    -0.481 OA
ATOM     16  H   UNL     1     -43.035 -59.775   5.986  0.00  0.00    +0.295 HD
ENDBRANCH  14  15
ENDBRANCH   1  14
ENDBRANCH   2   1
BRANCH   2   5
ATOM      5  C   UNL     1     -39.601 -56.370   4.938  0.00  0.00    +0.167 C 
BRANCH   5   6
ATOM      6  C   UNL     1     -38.672 -57.583   4.941  0.00  0.00    +0.308 C 
ATOM      9  O   UNL     1     -38.965 -58.608   4.270  0.00  0.00    -0.251 OA
BRANCH   6   7
ATOM      7  O   UNL     1     -37.609 -57.556   5.616  0.00  0.00    -0.481 OA
ATOM      8  H   UNL     1     -37.291 -58.339   6.020  0.00  0.00    +0.295 HD
ENDBRANCH   6   7
ENDBRANCH   5   6
ENDBRANCH   2   5
TORSDOF 9
ENDMDL
MODEL 2
REMARK VINA RESULT:      -4.8     23.386     24.739
REMARK  Name = D:\DATA SETS\BI\DOCKING\6Y3C\FLC.pdb
REMARK  9 active torsions:
REMARK  status: ('A' for Active; 'I' for Inactive)
REMARK    1  A    between atoms: _1  and  _2
REMARK    2  A    between atoms: _1  and  _5
REMARK    3  A    between atoms: _2  and  _4
REMARK    4  A    between atoms: _5  and  _6
REMARK    5  A    between atoms: _5  and  _9
REMARK    6  A    between atoms: _5  and  _13
REMARK    7  A    between atoms: _6  and  _8
REMARK    8  A    between atoms: _9  and  _10
REMARK    9  A    between atoms: _10  and  _12
REMARK                            x       y       z     vdW  Elec       q    Type
REMARK                         _______ _______ _______ _____ _____    ______ ____
ROOT
ATOM      2  C   UNL     1     -23.810 -43.650  18.157  0.00  0.00    +0.182 C 
ENDROOT
BRANCH   2   3
ATOM      3  O   UNL     1     -25.105 -44.078  17.833  0.00  0.00    -0.376 OA
ATOM      4  H   UNL     1     -25.580 -44.313  18.645  0.00  0.00    +0.211 HD
ENDBRANCH   2   3
BRANCH   2  10
ATOM     10  C   UNL     1     -23.205 -42.902  16.969  0.00  0.00    +0.338 C 
ATOM     13  O   UNL     1     -22.321 -42.025  17.157  0.00  0.00    -0.248 OA
BRANCH  10  11
ATOM     11  O   UNL     1     -23.594 -43.162  15.800  0.00  0.00    -0.479 OA
ATOM     12  H   UNL     1     -24.261 -42.638  15.402  0.00  0.00    +0.295 HD
ENDBRANCH  10  11
ENDBRANCH   2  10
BRANCH   2   1
ATOM      1  C   UNL     1     -22.938 -44.857  18.499  0.00  0.00    +0.167 C 
BRANCH   1  14
ATOM     14  C   UNL     1     -23.362 -46.124  17.760  0.00  0.00    +0.308 C 
ATOM     17  O   UNL     1     -23.776 -46.060  16.572  0.00  0.00    -0.251 OA
BRANCH  14  15
ATOM     15  O   UNL     1     -23.296 -47.239  18.342  0.00  0.00    -0.481 OA
ATOM     16  H   UNL     1     -24.037 -47.566  18.814  0.00  0.00    +0.295 HD
ENDBRANCH  14  15
ENDBRANCH   1  14
ENDBRANCH   2   1
BRANCH   2   5
ATOM      5  C   UNL     1     -23.856 -42.715  19.365  0.00  0.00    +0.167 C 
BRANCH   5   6
ATOM      6  C   UNL     1     -25.115 -41.850  19.410  0.00  0.00    +0.308 C 
ATOM      9  O   UNL     1     -25.111 -40.697  18.904  0.00  0.00    -0.251 OA
BRANCH   6   7
ATOM      7  O   UNL     1     -26.160 -42.294  19.955  0.00  0.00    -0.481 OA
ATOM      8  H   UNL     1     -26.154 -43.138  20.362  0.00  0.00    +0.295 HD
ENDBRANCH   6   7
ENDBRANCH   5   6
ENDBRANCH   2   5
TORSDOF 9
ENDMDL
MODEL 3
REMARK VINA RESULT:      -4.7      3.363      5.227
REMARK  Name = D:\DATA SETS\BI\DOCKING\6Y3C\FLC.pdb
REMARK  9 active torsions:
REMARK  status: ('A' for Active; 'I' for Inactive)
REMARK    1  A    between atoms: _1  and  _2
REMARK    2  A    between atoms: _1  and  _5
REMARK    3  A    between atoms: _2  and  _4
REMARK    4  A    between atoms: _5  and  _6
REMARK    5  A    between atoms: _5  and  _9
REMARK    6  A    between atoms: _5  and  _13
REMARK    7  A    between atoms: _6  and  _8
REMARK    8  A    between atoms: _9  and  _10
REMARK    9  A    between atoms: _10  and  _12
REMARK                            x       y       z     vdW  Elec       q    Type
REMARK                         _______ _______ _______ _____ _____    ______ ____
ROOT
ATOM      2  C   UNL     1     -39.775 -60.345   3.938  0.00  0.00    +0.182 C 
ENDROOT
BRANCH   2   3
ATOM      3  O   UNL     1     -40.625 -60.075   2.857  0.00  0.00    -0.376 OA
ATOM      4  H   UNL     1     -41.039 -60.899   2.557  0.00  0.00    +0.211 HD
ENDBRANCH   2   3
BRANCH   2  10
ATOM     10  C   UNL     1     -40.608 -60.634   5.186  0.00  0.00    +0.338 C 
ATOM     13  O   UNL     1     -41.865 -60.606   5.128  0.00  0.00    -0.248 OA
BRANCH  10  11
ATOM     11  O   UNL     1     -40.035 -60.899   6.275  0.00  0.00    -0.479 OA
ATOM     12  H   UNL     1     -40.443 -61.475   6.892  0.00  0.00    +0.295 HD
ENDBRANCH  10  11
ENDBRANCH   2  10
BRANCH   2   1
ATOM      1  C   UNL     1     -38.870 -59.141   4.196  0.00  0.00    +0.167 C 
BRANCH   1  14
ATOM     14  C   UNL     1     -39.647 -57.890   4.599  0.00  0.00    +0.308 C 
ATOM     17  O   UNL     1     -40.579 -57.458   3.871  0.00  0.00    -0.251 OA
BRANCH  14  15
ATOM     15  O   UNL     1     -39.354 -57.289   5.666  0.00  0.00    -0.481 OA
ATOM     16  H   UNL     1     -38.667 -57.614   6.213  0.00  0.00    +0.295 HD
ENDBRANCH  14  15
ENDBRANCH   1  14
ENDBRANCH   2   1
BRANCH   2   5
ATOM      5  C   UNL     1     -38.903 -61.561   3.626  0.00  0.00    +0.167 C 
BRANCH   5   6
ATOM      6  C   UNL     1     -39.358 -62.325   2.383  0.00  0.00    +0.308 C 
ATOM      9  O   UNL     1     -40.369 -63.072   2.433  0.00  0.00    -0.251 OA
BRANCH   6   7
ATOM      7  O   UNL     1     -38.717 -62.204   1.305  0.00  0.00    -0.481 OA
ATOM      8  H   UNL     1     -37.794 -62.359   1.289  0.00  0.00    +0.295 HD
ENDBRANCH   6   7
ENDBRANCH   5   6
ENDBRANCH   2   5
TORSDOF 9
ENDMDL
MODEL 4
REMARK VINA RESULT:      -4.4     22.600     24.543
REMARK  Name = D:\DATA SETS\BI\DOCKING\6Y3C\FLC.pdb
REMARK  9 active torsions:
REMARK  status: ('A' for Active; 'I' for Inactive)
REMARK    1  A    between atoms: _1  and  _2
REMARK    2  A    between atoms: _1  and  _5
REMARK    3  A    between atoms: _2  and  _4
REMARK    4  A    between atoms: _5  and  _6
REMARK    5  A    between atoms: _5  and  _9
REMARK    6  A    between atoms: _5  and  _13
REMARK    7  A    between atoms: _6  and  _8
REMARK    8  A    between atoms: _9  and  _10
REMARK    9  A    between atoms: _10  and  _12
REMARK                            x       y       z     vdW  Elec       q    Type
REMARK                         _______ _______ _______ _____ _____    ______ ____
ROOT
ATOM      2  C   UNL     1     -21.214 -70.218  -0.752  0.00  0.00    +0.182 C 
ENDROOT
BRANCH   2   3
ATOM      3  O   UNL     1     -21.431 -69.372   0.345  0.00  0.00    -0.376 OA
ATOM      4  H   UNL     1     -22.170 -68.774   0.151  0.00  0.00    +0.211 HD
ENDBRANCH   2   3
BRANCH   2  10
ATOM     10  C   UNL     1     -21.247 -69.401  -2.043  0.00  0.00    +0.338 C 
ATOM     13  O   UNL     1     -20.923 -69.934  -3.137  0.00  0.00    -0.248 OA
BRANCH  10  11
ATOM     11  O   UNL     1     -21.598 -68.193  -2.012  0.00  0.00    -0.479 OA
ATOM     12  H   UNL     1     -22.461 -67.962  -1.732  0.00  0.00    +0.295 HD
ENDBRANCH  10  11
ENDBRANCH   2  10
BRANCH   2   1
ATOM      1  C   UNL     1     -22.299 -71.293  -0.798  0.00  0.00    +0.167 C 
BRANCH   1  14
ATOM     14  C   UNL     1     -23.546 -70.911  -0.004  0.00  0.00    +0.308 C 
ATOM     17  O   UNL     1     -23.718 -71.353   1.163  0.00  0.00    -0.251 OA
BRANCH  14  15
ATOM     15  O   UNL     1     -24.406 -70.148  -0.518  0.00  0.00    -0.481 OA
ATOM     16  H   UNL     1     -24.175 -69.607  -1.247  0.00  0.00    +0.295 HD
ENDBRANCH  14  15
ENDBRANCH   1  14
ENDBRANCH   2   1
BRANCH   2   5
ATOM      5  C   UNL     1     -19.850 -70.897  -0.625  0.00  0.00    +0.167 C 
BRANCH   5   6
ATOM      6  C   UNL     1     -18.893 -70.156   0.309  0.00  0.00    +0.308 C 
ATOM      9  O   UNL     1     -18.289 -69.127  -0.090  0.00  0.00    -0.251 OA
BRANCH   6   7
ATOM      7  O   UNL     1     -18.711 -70.579   1.481  0.00  0.00    -0.481 OA
ATOM      8  H   UNL     1     -18.930 -71.463   1.700  0.00  0.00    +0.295 HD
ENDBRANCH   6   7
ENDBRANCH   5   6
ENDBRANCH   2   5
TORSDOF 9
ENDMDL
MODEL 5
REMARK VINA RESULT:      -4.3     17.112     18.295
REMARK  Name = D:\DATA SETS\BI\DOCKING\6Y3C\FLC.pdb
REMARK  9 active torsions:
REMARK  status: ('A' for Active; 'I' for Inactive)
REMARK    1  A    between atoms: _1  and  _2
REMARK    2  A    between atoms: _1  and  _5
REMARK    3  A    between atoms: _2  and  _4
REMARK    4  A    between atoms: _5  and  _6
REMARK    5  A    between atoms: _5  and  _9
REMARK    6  A    between atoms: _5  and  _13
REMARK    7  A    between atoms: _6  and  _8
REMARK    8  A    between atoms: _9  and  _10
REMARK    9  A    between atoms: _10  and  _12
REMARK                            x       y       z     vdW  Elec       q    Type
REMARK                         _______ _______ _______ _____ _____    ______ ____
ROOT
ATOM      2  C   UNL     1     -38.511 -68.356  19.503  0.00  0.00    +0.182 C 
ENDROOT
BRANCH   2   3
ATOM      3  O   UNL     1     -39.005 -69.073  20.602  0.00  0.00    -0.376 OA
ATOM      4  H   UNL     1     -39.900 -69.390  20.405  0.00  0.00    +0.211 HD
ENDBRANCH   2   3
BRANCH   2  10
ATOM     10  C   UNL     1     -38.708 -69.174  18.227  0.00  0.00    +0.338 C 
ATOM     13  O   UNL     1     -39.866 -69.376  17.777  0.00  0.00    -0.248 OA
BRANCH  10  11
ATOM     11  O   UNL     1     -37.708 -69.649  17.626  0.00  0.00    -0.479 OA
ATOM     12  H   UNL     1     -37.776 -70.470  17.181  0.00  0.00    +0.295 HD
ENDBRANCH  10  11
ENDBRANCH   2  10
BRANCH   2   1
ATOM      1  C   UNL     1     -37.023 -68.069  19.702  0.00  0.00    +0.167 C 
BRANCH   1  14
ATOM     14  C   UNL     1     -36.739 -67.256  20.963  0.00  0.00    +0.308 C 
ATOM     17  O   UNL     1     -37.294 -67.556  22.053  0.00  0.00    -0.251 OA
BRANCH  14  15
ATOM     15  O   UNL     1     -35.943 -66.281  20.912  0.00  0.00    -0.481 OA
ATOM     16  H   UNL     1     -36.266 -65.423  20.720  0.00  0.00    +0.295 HD
ENDBRANCH  14  15
ENDBRANCH   1  14
ENDBRANCH   2   1
BRANCH   2   5
ATOM      5  C   UNL     1     -39.256 -67.030  19.367  0.00  0.00    +0.167 C 
BRANCH   5   6
ATOM      6  C   UNL     1     -40.392 -66.870  20.377  0.00  0.00    +0.308 C 
ATOM      9  O   UNL     1     -41.577 -67.132  20.046  0.00  0.00    -0.251 OA
BRANCH   6   7
ATOM      7  O   UNL     1     -40.138 -66.476  21.547  0.00  0.00    -0.481 OA
ATOM      8  H   UNL     1     -39.860 -65.593  21.693  0.00  0.00    +0.295 HD
ENDBRANCH   6   7
ENDBRANCH   5   6
ENDBRANCH   2   5
TORSDOF 9
ENDMDL
MODEL 6
REMARK VINA RESULT:      -4.3     19.345     21.014
REMARK  Name = D:\DATA SETS\BI\DOCKING\6Y3C\FLC.pdb
REMARK  9 active torsions:
REMARK  status: ('A' for Active; 'I' for Inactive)
REMARK    1  A    between atoms: _1  and  _2
REMARK    2  A    between atoms: _1  and  _5
REMARK    3  A    between atoms: _2  and  _4
REMARK    4  A    between atoms: _5  and  _6
REMARK    5  A    between atoms: _5  and  _9
REMARK    6  A    between atoms: _5  and  _13
REMARK    7  A    between atoms: _6  and  _8
REMARK    8  A    between atoms: _9  and  _10
REMARK    9  A    between atoms: _10  and  _12
REMARK                            x       y       z     vdW  Elec       q    Type
REMARK                         _______ _______ _______ _____ _____    ______ ____
ROOT
ATOM      2  C   UNL     1     -36.154 -53.209 -14.370  0.00  0.00    +0.182 C 
ENDROOT
BRANCH   2   3
ATOM      3  O   UNL     1     -37.192 -53.677 -13.552  0.00  0.00    -0.376 OA
ATOM      4  H   UNL     1     -37.737 -52.929 -13.262  0.00  0.00    +0.211 HD
ENDBRANCH   2   3
BRANCH   2  10
ATOM     10  C   UNL     1     -36.734 -52.662 -15.673  0.00  0.00    +0.338 C 
ATOM     13  O   UNL     1     -37.971 -52.742 -15.898  0.00  0.00    -0.248 OA
BRANCH  10  11
ATOM     11  O   UNL     1     -35.974 -52.132 -16.525  0.00  0.00    -0.479 OA
ATOM     12  H   UNL     1     -35.314 -51.525 -16.252  0.00  0.00    +0.295 HD
ENDBRANCH  10  11
ENDBRANCH   2  10
BRANCH   2   1
ATOM      1  C   UNL     1     -35.187 -54.351 -14.680  0.00  0.00    +0.167 C 
BRANCH   1  14
ATOM     14  C   UNL     1     -35.367 -55.550 -13.752  0.00  0.00    +0.308 C 
ATOM     17  O   UNL     1     -35.988 -56.572 -14.146  0.00  0.00    -0.251 OA
BRANCH  14  15
ATOM     15  O   UNL     1     -34.889 -55.517 -12.588  0.00  0.00    -0.481 OA
ATOM     16  H   UNL     1     -35.403 -55.180 -11.880  0.00  0.00    +0.295 HD
ENDBRANCH  14  15
ENDBRANCH   1  14
ENDBRANCH   2   1
BRANCH   2   5
ATOM      5  C   UNL     1     -35.389 -52.094 -13.656  0.00  0.00    +0.167 C 
BRANCH   5   6
ATOM      6  C   UNL     1     -35.693 -52.018 -12.160  0.00  0.00    +0.308 C 
ATOM      9  O   UNL     1     -36.403 -51.084 -11.705  0.00  0.00    -0.251 OA
BRANCH   6   7
ATOM      7  O   UNL     1     -35.231 -52.894 -11.382  0.00  0.00    -0.481 OA
ATOM      8  H   UNL     1     -35.078 -52.686 -10.482  0.00  0.00    +0.295 HD
ENDBRANCH   6   7
ENDBRANCH   5   6
ENDBRANCH   2   5
TORSDOF 9
ENDMDL
MODEL 7
REMARK VINA RESULT:      -4.2     16.092     17.779
REMARK  Name = D:\DATA SETS\BI\DOCKING\6Y3C\FLC.pdb
REMARK  9 active torsions:
REMARK  status: ('A' for Active; 'I' for Inactive)
REMARK    1  A    between atoms: _1  and  _2
REMARK    2  A    between atoms: _1  and  _5
REMARK    3  A    between atoms: _2  and  _4
REMARK    4  A    between atoms: _5  and  _6
REMARK    5  A    between atoms: _5  and  _9
REMARK    6  A    between atoms: _5  and  _13
REMARK    7  A    between atoms: _6  and  _8
REMARK    8  A    between atoms: _9  and  _10
REMARK    9  A    between atoms: _10  and  _12
REMARK                            x       y       z     vdW  Elec       q    Type
REMARK                         _______ _______ _______ _____ _____    ______ ____
ROOT
ATOM      2  C   UNL     1     -41.041 -66.938  20.163  0.00  0.00    +0.182 C 
ENDROOT
BRANCH   2   3
ATOM      3  O   UNL     1     -41.203 -65.547  20.229  0.00  0.00    -0.376 OA
ATOM      4  H   UNL     1     -40.422 -65.112  19.854  0.00  0.00    +0.211 HD
ENDBRANCH   2   3
BRANCH   2  10
ATOM     10  C   UNL     1     -39.560 -67.289  20.300  0.00  0.00    +0.338 C 
ATOM     13  O   UNL     1     -38.988 -67.195  21.418  0.00  0.00    -0.248 OA
BRANCH  10  11
ATOM     11  O   UNL     1     -38.909 -67.669  19.292  0.00  0.00    -0.479 OA
ATOM     12  H   UNL     1     -37.987 -67.817  19.357  0.00  0.00    +0.295 HD
ENDBRANCH  10  11
ENDBRANCH   2  10
BRANCH   2   1
ATOM      1  C   UNL     1     -41.568 -67.457  18.826  0.00  0.00    +0.167 C 
BRANCH   1  14
ATOM     14  C   UNL     1     -42.817 -66.717  18.353  0.00  0.00    +0.308 C 
ATOM     17  O   UNL     1     -43.962 -67.139  18.663  0.00  0.00    -0.251 OA
BRANCH  14  15
ATOM     15  O   UNL     1     -42.700 -65.677  17.652  0.00  0.00    -0.481 OA
ATOM     16  H   UNL     1     -42.256 -64.928  17.996  0.00  0.00    +0.295 HD
ENDBRANCH  14  15
ENDBRANCH   1  14
ENDBRANCH   2   1
BRANCH   2   5
ATOM      5  C   UNL     1     -41.820 -67.608  21.295  0.00  0.00    +0.167 C 
BRANCH   5   6
ATOM      6  C   UNL     1     -42.599 -66.617  22.159  0.00  0.00    +0.308 C 
ATOM      9  O   UNL     1     -42.106 -66.190  23.235  0.00  0.00    -0.251 OA
BRANCH   6   7
ATOM      7  O   UNL     1     -43.739 -66.227  21.790  0.00  0.00    -0.481 OA
ATOM      8  H   UNL     1     -43.960 -66.220  20.880  0.00  0.00    +0.295 HD
ENDBRANCH   6   7
ENDBRANCH   5   6
ENDBRANCH   2   5
TORSDOF 9
ENDMDL
MODEL 8
REMARK VINA RESULT:      -4.2     24.538     25.791
REMARK  Name = D:\DATA SETS\BI\DOCKING\6Y3C\FLC.pdb
REMARK  9 active torsions:
REMARK  status: ('A' for Active; 'I' for Inactive)
REMARK    1  A    between atoms: _1  and  _2
REMARK    2  A    between atoms: _1  and  _5
REMARK    3  A    between atoms: _2  and  _4
REMARK    4  A    between atoms: _5  and  _6
REMARK    5  A    between atoms: _5  and  _9
REMARK    6  A    between atoms: _5  and  _13
REMARK    7  A    between atoms: _6  and  _8
REMARK    8  A    between atoms: _9  and  _10
REMARK    9  A    between atoms: _10  and  _12
REMARK                            x       y       z     vdW  Elec       q    Type
REMARK                         _______ _______ _______ _____ _____    ______ ____
ROOT
ATOM      2  C   UNL     1     -22.155 -44.476  19.090  0.00  0.00    +0.182 C 
ENDROOT
BRANCH   2   3
ATOM      3  O   UNL     1     -21.136 -45.329  18.646  0.00  0.00    -0.376 OA
ATOM      4  H   UNL     1     -20.380 -44.801  18.346  0.00  0.00    +0.211 HD
ENDBRANCH   2   3
BRANCH   2  10
ATOM     10  C   UNL     1     -22.160 -43.201  18.247  0.00  0.00    +0.338 C 
ATOM     13  O   UNL     1     -21.408 -42.238  18.552  0.00  0.00    -0.248 OA
BRANCH  10  11
ATOM     11  O   UNL     1     -22.920 -43.112  17.247  0.00  0.00    -0.479 OA
ATOM     12  H   UNL     1     -23.757 -42.699  17.329  0.00  0.00    +0.295 HD
ENDBRANCH  10  11
ENDBRANCH   2  10
BRANCH   2   1
ATOM      1  C   UNL     1     -21.927 -44.117  20.557  0.00  0.00    +0.167 C 
BRANCH   1  14
ATOM     14  C   UNL     1     -21.203 -45.217  21.331  0.00  0.00    +0.308 C 
ATOM     17  O   UNL     1     -21.837 -45.957  22.129  0.00  0.00    -0.251 OA
BRANCH  14  15
ATOM     15  O   UNL     1     -19.966 -45.386  21.167  0.00  0.00    -0.481 OA
ATOM     16  H   UNL     1     -19.634 -46.235  20.946  0.00  0.00    +0.295 HD
ENDBRANCH  14  15
ENDBRANCH   1  14
ENDBRANCH   2   1
BRANCH   2   5
ATOM      5  C   UNL     1     -23.511 -45.168  18.956  0.00  0.00    +0.167 C 
BRANCH   5   6
ATOM      6  C   UNL     1     -23.502 -46.321  17.953  0.00  0.00    +0.308 C 
ATOM      9  O   UNL     1     -23.728 -46.103  16.734  0.00  0.00    -0.251 OA
BRANCH   6   7
ATOM      7  O   UNL     1     -23.266 -47.494  18.349  0.00  0.00    -0.481 OA
ATOM      8  H   UNL     1     -22.833 -47.633  19.168  0.00  0.00    +0.295 HD
ENDBRANCH   6   7
ENDBRANCH   5   6
ENDBRANCH   2   5
TORSDOF 9
ENDMDL
MODEL 9
REMARK VINA RESULT:      -4.2     30.197     31.553
REMARK  Name = D:\DATA SETS\BI\DOCKING\6Y3C\FLC.pdb
REMARK  9 active torsions:
REMARK  status: ('A' for Active; 'I' for Inactive)
REMARK    1  A    between atoms: _1  and  _2
REMARK    2  A    between atoms: _1  and  _5
REMARK    3  A    between atoms: _2  and  _4
REMARK    4  A    between atoms: _5  and  _6
REMARK    5  A    between atoms: _5  and  _9
REMARK    6  A    between atoms: _5  and  _13
REMARK    7  A    between atoms: _6  and  _8
REMARK    8  A    between atoms: _9  and  _10
REMARK    9  A    between atoms: _10  and  _12
REMARK                            x       y       z     vdW  Elec       q    Type
REMARK                         _______ _______ _______ _____ _____    ______ ____
ROOT
ATOM      2  C   UNL     1     -47.591 -46.615 -22.399  0.00  0.00    +0.182 C 
ENDROOT
BRANCH   2   3
ATOM      3  O   UNL     1     -47.571 -45.688 -21.349  0.00  0.00    -0.376 OA
ATOM      4  H   UNL     1     -46.739 -45.774 -20.858  0.00  0.00    +0.211 HD
ENDBRANCH   2   3
BRANCH   2  10
ATOM     10  C   UNL     1     -48.225 -47.920 -21.919  0.00  0.00    +0.338 C 
ATOM     13  O   UNL     1     -47.497 -48.874 -21.536  0.00  0.00    -0.248 OA
BRANCH  10  11
ATOM     11  O   UNL     1     -49.478 -48.043 -21.909  0.00  0.00    -0.479 OA
ATOM     12  H   UNL     1     -49.957 -48.024 -22.713  0.00  0.00    +0.295 HD
ENDBRANCH  10  11
ENDBRANCH   2  10
BRANCH   2   1
ATOM      1  C   UNL     1     -46.165 -46.885 -22.877  0.00  0.00    +0.167 C 
BRANCH   1  14
ATOM     14  C   UNL     1     -45.176 -45.812 -22.428  0.00  0.00    +0.308 C 
ATOM     17  O   UNL     1     -44.363 -46.046 -21.496  0.00  0.00    -0.251 OA
BRANCH  14  15
ATOM     15  O   UNL     1     -45.172 -44.689 -22.996  0.00  0.00    -0.481 OA
ATOM     16  H   UNL     1     -44.821 -44.601 -23.861  0.00  0.00    +0.295 HD
ENDBRANCH  14  15
ENDBRANCH   1  14
ENDBRANCH   2   1
BRANCH   2   5
ATOM      5  C   UNL     1     -48.408 -46.064 -23.567  0.00  0.00    +0.167 C 
BRANCH   5   6
ATOM      6  C   UNL     1     -48.673 -44.563 -23.461  0.00  0.00    +0.308 C 
ATOM      9  O   UNL     1     -49.781 -44.143 -23.037  0.00  0.00    -0.251 OA
BRANCH   6   7
ATOM      7  O   UNL     1     -47.777 -43.743 -23.799  0.00  0.00    -0.481 OA
ATOM      8  H   UNL     1     -46.875 -43.988 -23.746  0.00  0.00    +0.295 HD
ENDBRANCH   6   7
ENDBRANCH   5   6
ENDBRANCH   2   5
TORSDOF 9
ENDMDL
